/*--------------------------------*- C++ -*----------------------------------*\
  =========                 |
  \\      /  F ield         | OpenFOAM: The Open Source CFD Toolbox
   \\    /   O peration     | Website:  https://openfoam.org
    \\  /    A nd           | Version:  7
     \\/     M anipulation  |
\*---------------------------------------------------------------------------*/
FoamFile
{
    version     2.0;
    format      ascii;
    class       polyBoundaryMesh;
    location    "constant/polyMesh";
    object      boundary;
}
// * * * * * * * * * * * * * * * * * * * * * * * * * * * * * * * * * * * * * //

9
(
    bottomWall
    {
        type            wall;
        inGroups        List<word> 1(wall);
        nFaces          625;
        startFace       54095;
    }
    inlet
    {
        type            patch;
        nFaces          650;
        startFace       54720;
    }
    sideWalls
    {
        type            wall;
        inGroups        List<word> 1(wall);
        nFaces          130;
        startFace       55370;
    }
    outlet
    {
        type            patch;
        nFaces          0;
        startFace       55500;
    }
    topWall
    {
        type            wall;
        inGroups        List<word> 1(wall);
        nFaces          0;
        startFace       55500;
    }
    procBoundary2to0
    {
        type            processor;
        inGroups        List<word> 1(processor);
        nFaces          810;
        startFace       55500;
        matchTolerance  0.0001;
        transform       unknown;
        myProcNo        2;
        neighbProcNo    0;
    }
    procBoundary2to3
    {
        type            processor;
        inGroups        List<word> 1(processor);
        nFaces          750;
        startFace       56310;
        matchTolerance  0.0001;
        transform       unknown;
        myProcNo        2;
        neighbProcNo    3;
    }
    procBoundary2to5
    {
        type            processor;
        inGroups        List<word> 1(processor);
        nFaces          550;
        startFace       57060;
        matchTolerance  0.0001;
        transform       unknown;
        myProcNo        2;
        neighbProcNo    5;
    }
    procBoundary2to7
    {
        type            processor;
        inGroups        List<word> 1(processor);
        nFaces          75;
        startFace       57610;
        matchTolerance  0.0001;
        transform       unknown;
        myProcNo        2;
        neighbProcNo    7;
    }
)

// ************************************************************************* //
