/*--------------------------------*- C++ -*----------------------------------*\
  =========                 |
  \\      /  F ield         | OpenFOAM: The Open Source CFD Toolbox
   \\    /   O peration     | Website:  https://openfoam.org
    \\  /    A nd           | Version:  7
     \\/     M anipulation  |
\*---------------------------------------------------------------------------*/
FoamFile
{
    version     2.0;
    format      ascii;
    class       polyBoundaryMesh;
    location    "constant/polyMesh";
    object      boundary;
}
// * * * * * * * * * * * * * * * * * * * * * * * * * * * * * * * * * * * * * //

9
(
    bottomWall
    {
        type            wall;
        inGroups        List<word> 1(wall);
        nFaces          0;
        startFace       54006;
    }
    inlet
    {
        type            patch;
        nFaces          0;
        startFace       54006;
    }
    sideWalls
    {
        type            wall;
        inGroups        List<word> 1(wall);
        nFaces          600;
        startFace       54006;
    }
    outlet
    {
        type            patch;
        nFaces          120;
        startFace       54606;
    }
    topWall
    {
        type            wall;
        inGroups        List<word> 1(wall);
        nFaces          624;
        startFace       54726;
    }
    procBoundary7to0
    {
        type            processor;
        inGroups        List<word> 1(processor);
        nFaces          549;
        startFace       55350;
        matchTolerance  0.0001;
        transform       unknown;
        myProcNo        7;
        neighbProcNo    0;
    }
    procBoundary7to2
    {
        type            processor;
        inGroups        List<word> 1(processor);
        nFaces          75;
        startFace       55899;
        matchTolerance  0.0001;
        transform       unknown;
        myProcNo        7;
        neighbProcNo    2;
    }
    procBoundary7to5
    {
        type            processor;
        inGroups        List<word> 1(processor);
        nFaces          750;
        startFace       55974;
        matchTolerance  0.0001;
        transform       unknown;
        myProcNo        7;
        neighbProcNo    5;
    }
    procBoundary7to6
    {
        type            processor;
        inGroups        List<word> 1(processor);
        nFaces          810;
        startFace       56724;
        matchTolerance  0.0001;
        transform       unknown;
        myProcNo        7;
        neighbProcNo    6;
    }
)

// ************************************************************************* //
