/*--------------------------------*- C++ -*----------------------------------*\
  =========                 |
  \\      /  F ield         | OpenFOAM: The Open Source CFD Toolbox
   \\    /   O peration     | Website:  https://openfoam.org
    \\  /    A nd           | Version:  7
     \\/     M anipulation  |
\*---------------------------------------------------------------------------*/
FoamFile
{
    version     2.0;
    format      ascii;
    class       polyBoundaryMesh;
    location    "constant/polyMesh";
    object      boundary;
}
// * * * * * * * * * * * * * * * * * * * * * * * * * * * * * * * * * * * * * //

9
(
    bottomWall
    {
        type            wall;
        inGroups        List<word> 1(wall);
        nFaces          625;
        startFace       54125;
    }
    inlet
    {
        type            patch;
        nFaces          625;
        startFace       54750;
    }
    sideWalls
    {
        type            wall;
        inGroups        List<word> 1(wall);
        nFaces          125;
        startFace       55375;
    }
    outlet
    {
        type            patch;
        nFaces          0;
        startFace       55500;
    }
    topWall
    {
        type            wall;
        inGroups        List<word> 1(wall);
        nFaces          0;
        startFace       55500;
    }
    procBoundary3to1
    {
        type            processor;
        inGroups        List<word> 1(processor);
        nFaces          750;
        startFace       55500;
        matchTolerance  0.0001;
        transform       unknown;
        myProcNo        3;
        neighbProcNo    1;
    }
    procBoundary3to2
    {
        type            processor;
        inGroups        List<word> 1(processor);
        nFaces          750;
        startFace       56250;
        matchTolerance  0.0001;
        transform       unknown;
        myProcNo        3;
        neighbProcNo    2;
    }
    procBoundary3to4
    {
        type            processor;
        inGroups        List<word> 1(processor);
        nFaces          546;
        startFace       57000;
        matchTolerance  0.0001;
        transform       unknown;
        myProcNo        3;
        neighbProcNo    4;
    }
    procBoundary3to5
    {
        type            processor;
        inGroups        List<word> 1(processor);
        nFaces          79;
        startFace       57546;
        matchTolerance  0.0001;
        transform       unknown;
        myProcNo        3;
        neighbProcNo    5;
    }
)

// ************************************************************************* //
